data_image0
_chemical_formula_structural       Fe4O6
_chemical_formula_sum              "Fe4 O6"
_cell_length_a       5.49503193
_cell_length_b       5.49503193
_cell_length_c       5.49503193
_cell_angle_alpha    55.35535378000001
_cell_angle_beta     55.35535378000001
_cell_angle_gamma    55.35535378000001

_space_group_name_H-M_alt    "P 1"
_space_group_IT_number       1

loop_
  _space_group_symop_operation_xyz
  'x, y, z'

loop_
  _atom_site_type_symbol
  _atom_site_label
  _atom_site_symmetry_multiplicity
  _atom_site_fract_x
  _atom_site_fract_y
  _atom_site_fract_z
  _atom_site_occupancy
  Fe  Fe1       1.0  0.854175  0.8541749999999999  0.854175  1.0000
  Fe  Fe2       1.0  0.145825  0.145825  0.14582500000000004  1.0000
  Fe  Fe3       1.0  0.645825  0.645825  0.645825  1.0000
  Fe  Fe4       1.0  0.35417499999999996  0.354175  0.354175  1.0000
  O   O1        1.0  0.4451224999999999  0.054877499999999926  0.7500000000000002  1.0000
  O   O2        1.0  0.5548775  0.9451225  0.25  1.0000
  O   O3        1.0  0.054877500000000086  0.7499999999999999  0.4451225  1.0000
  O   O4        1.0  0.9451224999999999  0.25000000000000006  0.5548775  1.0000
  O   O5        1.0  0.75  0.4451225  0.0548775  1.0000
  O   O6        1.0  0.25000000000000006  0.5548775  0.9451225  1.0000
