# generated using pymatgen
data_SiO2
_symmetry_space_group_name_H-M   'P 1'
_cell_length_a   5.02778205
_cell_length_b   5.02778205
_cell_length_c   5.51891800
_cell_angle_alpha   90.00000000
_cell_angle_beta   90.00000000
_cell_angle_gamma   120.00000000
_symmetry_Int_Tables_number   1
_chemical_formula_structural   SiO2
_chemical_formula_sum   'Si3 O6'
_cell_volume   120.81961853
_cell_formula_units_Z   3
loop_
 _symmetry_equiv_pos_site_id
 _symmetry_equiv_pos_as_xyz
  1  'x, y, z'
loop_
 _atom_site_type_symbol
 _atom_site_label
 _atom_site_symmetry_multiplicity
 _atom_site_fract_x
 _atom_site_fract_y
 _atom_site_fract_z
 _atom_site_occupancy
  Si  Si0  1  0.52271000  0.52271000  0.00000000  1
  Si  Si1  1  0.47729000  0.00000000  0.66666667  1
  Si  Si2  1  0.00000000  0.47729000  0.33333333  1
  O  O3  1  0.58496300  0.83926000  0.87066700  1
  O  O4  1  0.16074000  0.74570300  0.53733367  1
  O  O5  1  0.25429700  0.41503700  0.20400033  1
  O  O6  1  0.83926000  0.58496300  0.12933300  1
  O  O7  1  0.74570300  0.16074000  0.46266633  1
  O  O8  1  0.41503700  0.25429700  0.79599967  1
